
  EPA STORM WATER MANAGEMENT MODEL - VERSION 5.2 (Build 5.2.4)
  ------------------------------------------------------------

  Saanich framework smoke test from raw GIS assets 
  WARNING 04: minimum elevation drop used for Conduit DGM004949
  WARNING 04: minimum elevation drop used for Conduit DGM023798
  WARNING 04: minimum elevation drop used for Conduit DGM004948
  WARNING 04: minimum elevation drop used for Conduit DGM021686
  WARNING 04: minimum elevation drop used for Conduit DGM004945
  WARNING 04: minimum elevation drop used for Conduit DGM004946
  WARNING 04: minimum elevation drop used for Conduit DGM004947
  
  ****************
  Analysis Options
  ****************
  Flow Units ............... CMS
  Process Models:
    Rainfall/Runoff ........ YES
    RDII ................... NO
    Snowmelt ............... NO
    Groundwater ............ NO
    Flow Routing ........... YES
    Ponding Allowed ........ NO
    Water Quality .......... NO
  Infiltration Method ...... GREEN_AMPT
  Flow Routing Method ...... KINWAVE
  Starting Date ............ 04/09/1984 00:00:00
  Ending Date .............. 04/13/1984 23:00:00
  Antecedent Dry Days ...... 0.0
  Report Time Step ......... 01:00:00
  Wet Time Step ............ 01:00:00
  Dry Time Step ............ 00:00:00
  Routing Time Step ........ 300.00 sec
  
  
  **************************        Volume         Depth
  Runoff Quantity Continuity     hectare-m            mm
  **************************     ---------       -------
  Total Precipitation ......         0.092        26.208
  Evaporation Loss .........         0.000         0.000
  Infiltration Loss ........         0.055        15.628
  Surface Runoff ...........         0.037        10.536
  Final Storage ............         0.000         0.090
  Continuity Error (%) .....        -0.171
  
  
  **************************        Volume        Volume
  Flow Routing Continuity        hectare-m      10^6 ltr
  **************************     ---------     ---------
  Dry Weather Inflow .......         0.000         0.000
  Wet Weather Inflow .......         0.037         0.369
  Groundwater Inflow .......         0.000         0.000
  RDII Inflow ..............         0.000         0.000
  External Inflow ..........         0.000         0.000
  External Outflow .........         0.037         0.369
  Flooding Loss ............         0.000         0.000
  Evaporation Loss .........         0.000         0.000
  Exfiltration Loss ........         0.000         0.000
  Initial Stored Volume ....         0.000         0.000
  Final Stored Volume ......         0.000         0.000
  Continuity Error (%) .....         0.000
  
  
  ********************************
  Highest Flow Instability Indexes
  ********************************
  All links are stable.
  
  
  *************************
  Routing Time Step Summary
  *************************
  Minimum Time Step           :   299.00 sec
  Average Time Step           :   300.00 sec
  Maximum Time Step           :   300.00 sec
  % of Time in Steady State   :     0.00
  Average Iterations per Step :     1.02
  % of Steps Not Converging   :     0.00
  
  
  ***************************
  Subcatchment Runoff Summary
  ***************************
  
  ------------------------------------------------------------------------------------------------------------------------------
                            Total      Total      Total      Total     Imperv       Perv      Total       Total     Peak  Runoff
                           Precip      Runon       Evap      Infil     Runoff     Runoff     Runoff      Runoff   Runoff   Coeff
  Subcatchment                 mm         mm         mm         mm         mm         mm         mm    10^6 ltr      CMS
  ------------------------------------------------------------------------------------------------------------------------------
  S1                        26.21       0.00       0.00      15.63      10.54       0.00      10.54        0.37     0.00   0.402
  
  
  ******************
  Node Depth Summary
  ******************
  
  ---------------------------------------------------------------------------------
                                 Average  Maximum  Maximum  Time of Max    Reported
                                   Depth    Depth      HGL   Occurrence   Max Depth
  Node                 Type       Meters   Meters   Meters  days hr:min      Meters
  ---------------------------------------------------------------------------------
  J_AUTO_473315p611_5369254p705 JUNCTION     0.00     0.00     0.00     0  00:00        0.00
  J_AUTO_473340p667_5369264p343 JUNCTION     0.00     0.00     0.00     0  00:00        0.00
  J_AUTO_473377p178_5369208p711 JUNCTION     0.00     0.00     0.00     0  00:00        0.00
  J_AUTO_473406p306_5369277p442 JUNCTION     0.00     0.00     0.00     0  00:00        0.00
  J_AUTO_473407p895_5369218p311 JUNCTION     0.00     0.00     0.00     0  00:00        0.00
  J_AUTO_473408p920_5369215p736 JUNCTION     0.00     0.00     0.00     0  00:00        0.00
  J_AUTO_473439p647_5369218p478 JUNCTION     0.08     0.10     0.10     2  17:05        0.10
  J_AUTO_473439p649_5369218p481 JUNCTION     0.00     0.00     0.00     0  00:00        0.00
  J_AUTO_473448p553_5369219p260 JUNCTION     0.08     0.10     0.10     2  17:05        0.10
  OUT1                 OUTFALL      0.00     0.00     0.00     0  00:00        0.00
  
  
  *******************
  Node Inflow Summary
  *******************
  
  -------------------------------------------------------------------------------------------------
                                  Maximum  Maximum                  Lateral       Total        Flow
                                  Lateral    Total  Time of Max      Inflow      Inflow     Balance
                                   Inflow   Inflow   Occurrence      Volume      Volume       Error
  Node                 Type           CMS      CMS  days hr:min    10^6 ltr    10^6 ltr     Percent
  -------------------------------------------------------------------------------------------------
  J_AUTO_473315p611_5369254p705 JUNCTION     0.000    0.000     0  00:00           0           0       0.000 ltr
  J_AUTO_473340p667_5369264p343 JUNCTION     0.000    0.000     0  00:00           0           0       0.000 ltr
  J_AUTO_473377p178_5369208p711 JUNCTION     0.000    0.000     0  00:00           0           0       0.000 ltr
  J_AUTO_473406p306_5369277p442 JUNCTION     0.000    0.000     0  00:00           0           0       0.000 ltr
  J_AUTO_473407p895_5369218p311 JUNCTION     0.000    0.000     0  00:00           0           0       0.000 ltr
  J_AUTO_473408p920_5369215p736 JUNCTION     0.000    0.000     0  00:00           0           0       0.000 ltr
  J_AUTO_473439p647_5369218p478 JUNCTION     0.001    0.001     2  17:50       0.369       0.369       0.000
  J_AUTO_473439p649_5369218p481 JUNCTION     0.000    0.000     0  00:00           0           0       0.000 ltr
  J_AUTO_473448p553_5369219p260 JUNCTION     0.000    0.001     2  17:25           0       0.369       0.000
  OUT1                 OUTFALL      0.000    0.000     0  00:00           0           0       0.000 ltr
  
  
  *********************
  Node Flooding Summary
  *********************
  
  No nodes were flooded.
  
  
  ***********************
  Outfall Loading Summary
  ***********************
  
  -----------------------------------------------------------
                         Flow       Avg       Max       Total
                         Freq      Flow      Flow      Volume
  Outfall Node           Pcnt       CMS       CMS    10^6 ltr
  -----------------------------------------------------------
  OUT1                   0.00     0.000     0.000       0.000
  -----------------------------------------------------------
  System                 0.00     0.000     0.000       0.000
  
  
  ********************
  Link Flow Summary
  ********************
  
  -----------------------------------------------------------------------------
                                 Maximum  Time of Max   Maximum    Max/    Max/
                                  |Flow|   Occurrence   |Veloc|    Full    Full
  Link                 Type          CMS  days hr:min     m/sec    Flow   Depth
  -----------------------------------------------------------------------------
  DGM004949            CONDUIT     0.000     0  00:00      0.00    0.00    0.00
  DGM023798            CONDUIT     0.000     0  00:00      0.00    0.00    0.00
  DGM004948            CONDUIT     0.000     0  00:00      0.00    0.00    0.00
  DGM021686            CONDUIT     0.001     2  17:25      0.07    0.23    0.33
  DGM004945            CONDUIT     0.000     0  00:00      0.00    0.00    0.00
  DGM004946            CONDUIT     0.000     0  00:00      0.00    0.00    0.00
  DGM004947            CONDUIT     0.000     0  00:00      0.00    0.00    0.00
  
  
  *************************
  Conduit Surcharge Summary
  *************************
  
  No conduits were surcharged.
  

  Analysis begun on:  Wed May 13 15:59:13 2026
  Analysis ended on:  Wed May 13 15:59:13 2026
  Total elapsed time: < 1 sec