
  EPA STORM WATER MANAGEMENT MODEL - VERSION 5.2 (Build 5.2.4)
  ------------------------------------------------------------

  Saanich Cecelia smoke test 
  
  ****************
  Analysis Options
  ****************
  Flow Units ............... CMS
  Process Models:
    Rainfall/Runoff ........ YES
    RDII ................... NO
    Snowmelt ............... NO
    Groundwater ............ NO
    Flow Routing ........... YES
    Ponding Allowed ........ NO
    Water Quality .......... NO
  Infiltration Method ...... GREEN_AMPT
  Flow Routing Method ...... DYNWAVE
  Surcharge Method ......... EXTRAN
  Starting Date ............ 04/02/1984 00:00:00
  Ending Date .............. 09/30/1984 23:00:00
  Antecedent Dry Days ...... 0.0
  Report Time Step ......... 01:00:00
  Wet Time Step ............ 00:15:00
  Dry Time Step ............ 01:00:00
  Routing Time Step ........ 60.00 sec
  Variable Time Step ....... YES
  Maximum Trials ........... 8
  Number of Threads ........ 1
  Head Tolerance ........... 0.001524 m
  
  
  **************************        Volume         Depth
  Runoff Quantity Continuity     hectare-m            mm
  **************************     ---------       -------
  Total Precipitation ......         0.034        11.083
  Evaporation Loss .........         0.000         0.000
  Infiltration Loss ........         0.015         4.988
  Surface Runoff ...........         0.019         6.075
  Final Storage ............         0.000         0.021
  Continuity Error (%) .....         0.000
  
  
  **************************        Volume        Volume
  Flow Routing Continuity        hectare-m      10^6 ltr
  **************************     ---------     ---------
  Dry Weather Inflow .......         0.000         0.000
  Wet Weather Inflow .......         0.019         0.189
  Groundwater Inflow .......         0.000         0.000
  RDII Inflow ..............         0.000         0.000
  External Inflow ..........         0.000         0.000
  External Outflow .........         0.019         0.189
  Flooding Loss ............         0.000         0.000
  Evaporation Loss .........         0.000         0.000
  Exfiltration Loss ........         0.000         0.000
  Initial Stored Volume ....         0.000         0.000
  Final Stored Volume ......         0.000         0.000
  Continuity Error (%) .....         0.000
  
  
  ***************************
  Time-Step Critical Elements
  ***************************
  None
  
  
  ********************************
  Highest Flow Instability Indexes
  ********************************
  All links are stable.
  
  
  *********************************
  Most Frequent Nonconverging Nodes
  *********************************
  Convergence obtained at all time steps.
  
  
  *************************
  Routing Time Step Summary
  *************************
  Minimum Time Step           :    58.50 sec
  Average Time Step           :    60.00 sec
  Maximum Time Step           :    60.00 sec
  % of Time in Steady State   :     0.00
  Average Iterations per Step :     2.00
  % of Steps Not Converging   :     0.00
  Time Step Frequencies       :
     60.000 - 23.031 sec      :   100.00 %
     23.031 -  8.841 sec      :     0.00 %
      8.841 -  3.393 sec      :     0.00 %
      3.393 -  1.303 sec      :     0.00 %
      1.303 -  0.500 sec      :     0.00 %
  
  
  ***************************
  Subcatchment Runoff Summary
  ***************************
  
  ------------------------------------------------------------------------------------------------------------------------------
                            Total      Total      Total      Total     Imperv       Perv      Total       Total     Peak  Runoff
                           Precip      Runon       Evap      Infil     Runoff     Runoff     Runoff      Runoff   Runoff   Coeff
  Subcatchment                 mm         mm         mm         mm         mm         mm         mm    10^6 ltr      CMS
  ------------------------------------------------------------------------------------------------------------------------------
  S1                        11.08       0.00       0.00       4.99       6.07       0.00       6.07        0.19     0.00   0.548
  
  
  ******************
  Node Depth Summary
  ******************
  
  ---------------------------------------------------------------------------------
                                 Average  Maximum  Maximum  Time of Max    Reported
                                   Depth    Depth      HGL   Occurrence   Max Depth
  Node                 Type       Meters   Meters   Meters  days hr:min      Meters
  ---------------------------------------------------------------------------------
  J_471972p576_5366121p534 JUNCTION     0.00     0.00    97.68     0  00:00        0.00
  J_471987p924_5366124p014 JUNCTION     0.00     0.00    97.63     0  00:00        0.00
  J_472053p848_5366135p737 JUNCTION     0.00     0.00    97.64     0  00:00        0.00
  J_472104p748_5366218p296 JUNCTION     0.00     0.00    98.00     0  00:00        0.00
  J_472111p079_5366145p229 JUNCTION     0.00     0.00    97.76     0  00:00        0.00
  J_472114p774_5366129p995 JUNCTION     0.00     0.00    97.71     0  00:00        0.00
  J_472117p989_5366146p033 JUNCTION     0.00     0.00    97.76     0  00:00        0.00
  J_472119p727_5366126p397 JUNCTION     0.00     0.00    97.69     0  00:00        0.00
  J_472137p702_5366080p170 JUNCTION     0.00     0.00    97.45     0  00:00        0.00
  J_472227p158_5366092p559 JUNCTION     0.00     0.00    97.49     0  00:00        0.00
  J_472233p281_5366093p714 JUNCTION     0.00     0.00    97.54     0  00:00        0.00
  J_472233p563_5366093p760 JUNCTION     0.00     0.00    97.59     0  00:00        0.00
  OF1                  OUTFALL      0.00     0.00    97.30     0  00:00        0.00
  
  
  *******************
  Node Inflow Summary
  *******************
  
  -------------------------------------------------------------------------------------------------
                                  Maximum  Maximum                  Lateral       Total        Flow
                                  Lateral    Total  Time of Max      Inflow      Inflow     Balance
                                   Inflow   Inflow   Occurrence      Volume      Volume       Error
  Node                 Type           CMS      CMS  days hr:min    10^6 ltr    10^6 ltr     Percent
  -------------------------------------------------------------------------------------------------
  J_471972p576_5366121p534 JUNCTION     0.000    0.000     0  00:00           0           0       0.000 ltr
  J_471987p924_5366124p014 JUNCTION     0.000    0.000     0  00:00           0           0       0.000 ltr
  J_472053p848_5366135p737 JUNCTION     0.000    0.000     0  00:00           0           0       0.000 ltr
  J_472104p748_5366218p296 JUNCTION     0.000    0.000     0  00:00           0           0       0.000 ltr
  J_472111p079_5366145p229 JUNCTION     0.000    0.000     0  00:00           0           0       0.000 ltr
  J_472114p774_5366129p995 JUNCTION     0.000    0.000     0  00:00           0           0       0.000 ltr
  J_472117p989_5366146p033 JUNCTION     0.000    0.000     0  00:00           0           0       0.000 ltr
  J_472119p727_5366126p397 JUNCTION     0.000    0.000     0  00:00           0           0       0.000 ltr
  J_472137p702_5366080p170 JUNCTION     0.000    0.000     0  00:00           0           0       0.000 ltr
  J_472227p158_5366092p559 JUNCTION     0.000    0.000     0  00:00           0           0       0.000 ltr
  J_472233p281_5366093p714 JUNCTION     0.000    0.000     0  00:00           0           0       0.000 ltr
  J_472233p563_5366093p760 JUNCTION     0.000    0.000     0  00:00           0           0       0.000 ltr
  OF1                  OUTFALL      0.000    0.000    54  00:00       0.189       0.189       0.000
  
  
  **********************
  Node Surcharge Summary
  **********************
  
  No nodes were surcharged.
  
  
  *********************
  Node Flooding Summary
  *********************
  
  No nodes were flooded.
  
  
  ***********************
  Outfall Loading Summary
  ***********************
  
  -----------------------------------------------------------
                         Flow       Avg       Max       Total
                         Freq      Flow      Flow      Volume
  Outfall Node           Pcnt       CMS       CMS    10^6 ltr
  -----------------------------------------------------------
  OF1                   14.92     0.000     0.000       0.189
  -----------------------------------------------------------
  System                14.92     0.000     0.000       0.189
  
  
  ********************
  Link Flow Summary
  ********************
  
  -----------------------------------------------------------------------------
                                 Maximum  Time of Max   Maximum    Max/    Max/
                                  |Flow|   Occurrence   |Veloc|    Full    Full
  Link                 Type          CMS  days hr:min     m/sec    Flow   Depth
  -----------------------------------------------------------------------------
  P000                 CONDUIT     0.000     0  00:00      0.00    0.00    0.00
  P001                 CONDUIT     0.000     0  00:00      0.00    0.00    0.00
  P002                 CONDUIT     0.000     0  00:00      0.00    0.00    0.00
  P003                 CONDUIT     0.000     0  00:00      0.00    0.00    0.00
  P004                 CONDUIT     0.000     0  00:00      0.00    0.00    0.00
  P005                 CONDUIT     0.000     0  00:00      0.00    0.00    0.00
  P006                 CONDUIT     0.000     0  00:00      0.00    0.00    0.00
  P007                 CONDUIT     0.000     0  00:00      0.00    0.00    0.00
  P008                 CONDUIT     0.000     0  00:00      0.00    0.00    0.00
  P009                 CONDUIT     0.000     0  00:00      0.00    0.00    0.00
  P010                 CONDUIT     0.000     0  00:00      0.00    0.00    0.00
  
  
  ***************************
  Flow Classification Summary
  ***************************
  
  -------------------------------------------------------------------------------------
                      Adjusted    ---------- Fraction of Time in Flow Class ---------- 
                       /Actual         Up    Down  Sub   Sup   Up    Down  Norm  Inlet 
  Conduit               Length    Dry  Dry   Dry   Crit  Crit  Crit  Crit  Ltd   Ctrl  
  -------------------------------------------------------------------------------------
  P000                    1.00   1.00  0.00  0.00  0.00  0.00  0.00  0.00  0.00  0.00
  P001                    1.00   1.00  0.00  0.00  0.00  0.00  0.00  0.00  0.00  0.00
  P002                    1.00   1.00  0.00  0.00  0.00  0.00  0.00  0.00  0.00  0.00
  P003                    1.00   1.00  0.00  0.00  0.00  0.00  0.00  0.00  0.00  0.00
  P004                    1.00   1.00  0.00  0.00  0.00  0.00  0.00  0.00  0.00  0.00
  P005                    1.00   1.00  0.00  0.00  0.00  0.00  0.00  0.00  0.00  0.00
  P006                    1.00   1.00  0.00  0.00  0.00  0.00  0.00  0.00  0.00  0.00
  P007                    1.00   1.00  0.00  0.00  0.00  0.00  0.00  0.00  0.00  0.00
  P008                    1.00   1.00  0.00  0.00  0.00  0.00  0.00  0.00  0.00  0.00
  P009                    1.00   1.00  0.00  0.00  0.00  0.00  0.00  0.00  0.00  0.00
  P010                    1.00   1.00  0.00  0.00  0.00  0.00  0.00  0.00  0.00  0.00
  
  
  *************************
  Conduit Surcharge Summary
  *************************
  
  No conduits were surcharged.
  

  Analysis begun on:  Wed May 13 11:10:12 2026
  Analysis ended on:  Wed May 13 11:10:12 2026
  Total elapsed time: < 1 sec