
  EPA STORM WATER MANAGEMENT MODEL - VERSION 5.2 (Build 5.2.4)
  ------------------------------------------------------------

  Sample mini model for design_review tests


  **************************        Volume         Depth
  Runoff Quantity Continuity     hectare-m            mm
  **************************     ---------       -------
  Total Precipitation ......         0.100        10.000
  Evaporation Loss .........         0.000         0.000
  Infiltration Loss ........         0.060         6.000
  Surface Runoff ...........         0.040         4.000
  Final Storage ............         0.000         0.000
  Continuity Error (%) .....        -0.150


  **************************        Volume        Volume
  Flow Routing Continuity        hectare-m      10^6 ltr
  **************************     ---------     ---------
  Dry Weather Inflow .......         0.000         0.000
  Wet Weather Inflow .......         0.040         0.400
  Groundwater Inflow .......         0.000         0.000
  RDII Inflow ..............         0.000         0.000
  External Inflow ..........         0.000         0.000
  External Outflow .........         0.040         0.400
  Flooding Loss ............         0.000         0.000
  Evaporation Loss .........         0.000         0.000
  Exfiltration Loss ........         0.000         0.000
  Initial Stored Volume ....         0.000         0.000
  Final Stored Volume ......         0.000         0.000
  Continuity Error (%) .....         0.000


  ******************
  Node Depth Summary
  ******************

  ---------------------------------------------------------------------------------
                                 Average  Maximum  Maximum  Time of Max    Reported
                                   Depth    Depth      HGL   Occurrence   Max Depth
  Node                 Type       Meters   Meters   Meters  days hr:min      Meters
  ---------------------------------------------------------------------------------
  J1                   JUNCTION     0.10     0.20     10.20     0  01:00        0.20
  J2                   JUNCTION     0.15     0.30      8.30     0  01:00        0.30
  J3                   JUNCTION     0.05     0.10      5.10     0  01:00        0.10
  OUT1                 OUTFALL      0.00     0.00      0.00     0  00:00        0.00


  *******************
  Node Inflow Summary
  *******************

  -------------------------------------------------------------------------------------------------
                                  Maximum  Maximum                  Lateral       Total        Flow
                                  Lateral    Total  Time of Max      Inflow      Inflow     Balance
                                   Inflow   Inflow   Occurrence      Volume      Volume       Error
  Node                 Type           CMS      CMS  days hr:min    10^6 ltr    10^6 ltr     Percent
  -------------------------------------------------------------------------------------------------
  J1                   JUNCTION     0.050    0.050     0  01:00       0.200       0.200       0.000
  J2                   JUNCTION     0.000    0.050     0  01:05           0       0.200       0.000
  J3                   JUNCTION     0.000    0.050     0  01:10           0       0.200       0.000
  OUT1                 OUTFALL      0.000    0.050     0  01:15           0       0.200       0.000


  *********************
  Node Flooding Summary
  *********************

  No nodes were flooded.


  ***********************
  Outfall Loading Summary
  ***********************

  -----------------------------------------------------------
                         Flow       Avg       Max       Total
                         Freq      Flow      Flow      Volume
  Outfall Node           Pcnt       CMS       CMS    10^6 ltr
  -----------------------------------------------------------
  OUT1                  50.00     0.025     0.050       0.200
  -----------------------------------------------------------
  System                50.00     0.025     0.050       0.200


  ********************
  Link Flow Summary
  ********************

  -----------------------------------------------------------------------------
                                 Maximum  Time of Max   Maximum    Max/    Max/
                                  |Flow|   Occurrence   |Veloc|    Full    Full
  Link                 Type          CMS  days hr:min     m/sec    Flow   Depth
  -----------------------------------------------------------------------------
  C1                   CONDUIT     0.050     0  01:00      3.47    0.72    0.65
  C2                   CONDUIT     0.050     0  01:05      1.20    0.45    0.40
  C3                   CONDUIT     0.050     0  01:10      0.80    0.35    0.30


  *************************
  Conduit Surcharge Summary
  *************************

  No conduits were surcharged.


  Analysis begun on:  Wed Jan  1 00:00:00 2026
  Analysis ended on:  Wed Jan  1 00:00:01 2026
  Total elapsed time: < 1 sec
